Version 4
SHEET 1 880 680
WIRE 160 -80 160 -112
FLAG -96 96 PI
IOPIN -96 96 In
FLAG -96 160 A
IOPIN -96 160 In
FLAG 160 -112 VDD
IOPIN 160 -112 In
FLAG 464 16 S
IOPIN 464 16 Out
FLAG 464 80 PO
IOPIN 464 80 Out
FLAG -96 224 B
IOPIN -96 224 In
FLAG 224 336 0
