Version 4
SHEET 1 880 680
WIRE 240 80 192 80
WIRE 304 80 304 -16
WIRE 192 144 192 80
WIRE 192 144 32 144
WIRE 656 144 512 144
WIRE 192 208 192 144
WIRE 240 208 192 208
FLAG 32 144 VIN
IOPIN 32 144 In
FLAG 304 -16 VDD
IOPIN 304 -16 In
FLAG 656 144 VOUT
IOPIN 656 144 Out
SYMBOL nor 304 112 R0
SYMATTR InstName X1
