Version 4
SHEET 1 880 680
WIRE 448 16 448 -32
WIRE 448 16 336 16
WIRE 592 16 448 16
WIRE 272 128 176 128
WIRE 272 144 272 128
WIRE 304 144 272 144
WIRE 336 144 336 16
WIRE 560 144 512 144
WIRE 592 144 592 16
WIRE 512 160 512 144
WIRE 512 160 384 160
WIRE 736 160 640 160
WIRE 304 176 272 176
WIRE 560 176 528 176
WIRE 272 208 272 176
WIRE 272 208 176 208
WIRE 528 240 528 176
WIRE 528 240 464 240
FLAG 176 128 VIN1
IOPIN 176 128 In
FLAG 176 208 VIN2
IOPIN 176 208 In
FLAG 464 240 VIN3
IOPIN 464 240 In
FLAG 736 160 VOUT
IOPIN 736 160 Out
FLAG 448 -32 VDD
IOPIN 448 -32 In
SYMBOL or 320 176 R0
SYMATTR InstName X1
SYMBOL or 576 176 R0
SYMATTR InstName X2
