Version 4
SHEET 1 1624 716
WIRE 592 -32 592 -112
WIRE 592 -32 272 -32
WIRE 816 -32 592 -32
WIRE 1232 -32 816 -32
WIRE 208 48 160 48
WIRE 272 48 272 -32
WIRE 704 112 480 112
WIRE 160 128 160 48
WIRE 160 128 64 128
WIRE 704 128 704 112
WIRE 752 128 704 128
WIRE 816 128 816 -32
WIRE 160 176 160 128
WIRE 208 176 160 176
WIRE 1072 192 1024 192
WIRE 464 224 336 224
WIRE 592 224 592 -32
WIRE 592 224 464 224
WIRE 752 256 672 256
WIRE 400 288 352 288
WIRE 464 288 464 224
WIRE 1072 304 1072 192
WIRE 1168 304 1072 304
WIRE 1232 304 1232 -32
WIRE 352 336 352 288
WIRE 352 336 256 336
WIRE 672 352 672 256
WIRE 1536 368 1440 368
WIRE 352 416 352 336
WIRE 400 416 352 416
WIRE 1168 432 544 432
WIRE 352 464 352 416
WIRE 352 464 224 464
WIRE 224 544 224 464
WIRE 272 544 224 544
WIRE 336 544 336 224
WIRE 544 608 544 432
WIRE 160 672 160 176
WIRE 272 672 160 672
FLAG 64 128 VIN1
IOPIN 64 128 In
FLAG 256 336 VIN2
IOPIN 256 336 In
FLAG 1536 368 VOUT
IOPIN 1536 368 Out
FLAG 592 -112 VDD
IOPIN 592 -112 In
SYMBOL nor 272 80 R0
SYMATTR InstName X1
SYMBOL nor 464 320 R0
SYMATTR InstName X2
SYMBOL nor 816 160 R0
SYMATTR InstName X3
SYMBOL nor 1232 336 R0
SYMATTR InstName X4
SYMBOL nor 336 576 R0
SYMATTR InstName X5
